% ------------- DIRECT, ADJOINT, AND LINEARIZED PROBLEM DEFINITION ------------%

SOLVER= INC_RANS
KIND_TURB_MODEL= SST
SST_OPTIONS= V2003m
KIND_TRANS_MODEL= LM
LM_OPTIONS= MENTER_LANGTRY
MATH_PROBLEM= DIRECT
RESTART_SOL= NO

% ---------------- INCOMPRESSIBLE FLOW CONDITION DEFINITION -------------------%

INC_DENSITY_MODEL= VARIABLE
INC_ENERGY_EQUATION = YES
INC_TEMPERATURE_INIT= 288.15
INC_DENSITY_INIT= 1.225
INC_VELOCITY_INIT= ( 20, 0.0, 0.0 )
INC_NONDIM= INITIAL_VALUES

% ---------------------- REFERENCE VALUE DEFINITION ---------------------------%

REF_ORIGIN_MOMENT_X = 0.00
REF_ORIGIN_MOMENT_Y = 0.00
REF_ORIGIN_MOMENT_Z = 0.00
REF_LENGTH= 0.32
REF_AREA= 0

% ---------------------- IDEAL GAS ----------------------%

FLUID_MODEL= INC_IDEAL_GAS
SPECIFIC_HEAT_CP= 1004.703
MOLECULAR_WEIGHT= 28.96

% --------------------------- VISCOSITY MODEL ---------------------------------%

VISCOSITY_MODEL= CONSTANT_VISCOSITY
MU_CONSTANT= 1.853e-05

% --------------------------- THERMAL CONDUCTIVITY MODEL ----------------------%

CONDUCTIVITY_MODEL= CONSTANT_PRANDTL
PRANDTL_LAM= 0.72
PRANDTL_TURB= 0.90

% -------------------- BOUNDARY CONDITION DEFINITION --------------------------%

MARKER_FAR= (top,inlet,outlet)
MARKER_HEATFLUX= (Airfoil1, 0.0, Airfoil2, 0.0, Nose, 0.0)
MARKER_EULER= (bottom)
MARKER_PLOTTING= (Airfoil1, Airfoil2)
MARKER_MONITORING= (Airfoil1,Airfoil2)

% ------------- COMMON PARAMETERS DEFINING THE NUMERICAL METHOD ---------------%

NUM_METHOD_GRAD= GREEN_GAUSS
CFL_NUMBER= 10.0
CFL_ADAPT= YES
CFL_ADAPT_PARAM= ( 0.5, 1.1, 1.0, 400)
RK_ALPHA_COEFF= ( 0.66667, 0.66667, 1.000000 )
ITER= 99999

% ------------------------ LINEAR SOLVER DEFINITION ---------------------------%

LINEAR_SOLVER= FGMRES
LINEAR_SOLVER_PREC= ILU
LINEAR_SOLVER_ERROR= 1e-6
LINEAR_SOLVER_ITER= 100

% -------------------- FLOW NUMERICAL METHOD DEFINITION -----------------------%

CONV_NUM_METHOD_FLOW= JST
MUSCL_FLOW= NO
JST_SENSOR_COEFF= ( 0.5, 0.02 )
TIME_DISCRE_FLOW= EULER_IMPLICIT

% -------------------- TURBULENT NUMERICAL METHOD DEFINITION ------------------%

CONV_NUM_METHOD_TURB= SCALAR_UPWIND
MUSCL_TURB= NO
TIME_DISCRE_TURB= EULER_IMPLICIT

% --------------------------- CONVERGENCE PARAMETERS --------------------------%

CONV_FIELD= RMS_PRESSURE
CONV_RESIDUAL_MINVAL= -9
CONV_STARTITER= 10
CONV_CAUCHY_ELEMS= 100
CONV_CAUCHY_EPS= 1E-6

% ------------------------- INPUT/OUTPUT INFORMATION --------------------------%

MESH_FILENAME= Eppler_396_GOE_431.su2
MESH_FORMAT= SU2
SOLUTION_FILENAME= restart_flow.dat
TABULAR_FORMAT= CSV
CONV_FILENAME= history
RESTART_FILENAME= restart_flow.dat
VOLUME_FILENAME= flow
SURFACE_FILENAME= surface_flow
OUTPUT_WRT_FREQ= 100
SCREEN_OUTPUT= (INNER_ITER, LINSOL_ITER, RMS_PRESSURE, LIFT, DRAG, AVG_CFL)
VOLUME_OUTPUT= (COORDINATES, SOLUTION, PRIMITIVE, RESIDUAL)
HISTORY_OUTPUT= (ITER, LINSOL, RMS_RES, HEAT, AERO_COEFF, CFL_NUMBER)


